Version 4
SHEET 1 880 680
WIRE 240 32 240 16
WIRE 240 32 128 32
WIRE 352 32 240 32
WIRE 352 64 352 32
WIRE 128 80 128 32
WIRE 272 112 224 112
WIRE 48 128 0 128
WIRE 496 128 432 128
WIRE 224 144 224 112
WIRE 224 144 208 144
WIRE 272 144 224 144
WIRE 48 160 0 160
FLAG 0 160 VB
IOPIN 0 160 In
FLAG 0 128 VA
IOPIN 0 128 In
FLAG 240 16 VDD
IOPIN 240 16 In
FLAG 496 128 VOUT
IOPIN 496 128 Out
SYMBOL nand 336 112 R0
SYMATTR InstName X2
SYMBOL nand 112 128 R0
SYMATTR InstName X1
