Version 4
SHEET 1 880 680
WIRE 240 48 128 48
WIRE 272 48 272 32
WIRE 272 48 240 48
WIRE 384 48 272 48
WIRE 48 96 0 96
WIRE 256 112 192 112
WIRE 384 112 384 48
WIRE 48 128 0 128
WIRE 256 160 256 112
WIRE 304 160 256 160
WIRE 496 176 448 176
WIRE 240 192 240 48
WIRE 240 192 128 192
WIRE 304 192 256 192
WIRE 48 240 0 240
WIRE 256 256 256 192
WIRE 256 256 192 256
WIRE 48 272 0 272
FLAG 272 32 VDD
IOPIN 272 32 In
FLAG 496 176 VOUT
IOPIN 496 176 Out
FLAG 0 96 VA
IOPIN 0 96 In
FLAG 0 128 VB
IOPIN 0 128 In
FLAG 0 240 VC
IOPIN 0 240 In
FLAG 0 272 VD
IOPIN 0 272 In
SYMBOL and 96 112 R0
SYMATTR InstName X1
SYMBOL and 96 256 R0
SYMATTR InstName X2
SYMBOL and 352 176 R0
SYMATTR InstName X3
