Version 4
SHEET 1 2092 1544
WIRE 288 -304 288 -544
WIRE 288 -304 48 -304
WIRE 848 -304 288 -304
WIRE 1616 -304 848 -304
WIRE 848 -256 848 -304
WIRE -128 -240 -384 -240
WIRE -80 -240 -128 -240
WIRE 768 -208 192 -208
WIRE 768 -192 384 -192
WIRE -320 -176 -384 -176
WIRE -80 -176 -320 -176
WIRE 1456 -176 960 -176
WIRE 1952 -176 1456 -176
WIRE 768 -160 416 -160
WIRE 768 -144 432 -144
WIRE 1616 -144 1616 -304
WIRE 1456 -80 1456 -176
WIRE 1488 -80 1456 -80
WIRE 160 -64 -176 -64
WIRE 288 -64 288 -304
WIRE 288 -64 160 -64
WIRE 848 -64 288 -64
WIRE 1264 -64 848 -64
WIRE -176 -48 -176 -64
WIRE 848 -48 848 -64
WIRE 1952 -48 1760 -48
WIRE 1264 -32 1264 -64
WIRE -128 -16 -128 -240
WIRE 80 -16 -128 -16
WIRE 1488 -16 1456 -16
WIRE -320 0 -320 -176
WIRE -256 0 -320 0
WIRE 768 0 224 0
WIRE 80 16 -96 16
WIRE 96 16 80 16
WIRE 384 16 384 -192
WIRE 768 16 384 16
WIRE -320 32 -320 0
WIRE -256 32 -320 32
WIRE 1136 32 960 32
WIRE 416 48 416 -160
WIRE 768 48 416 48
WIRE 1136 48 976 48
WIRE 432 64 432 -144
WIRE 768 64 432 64
WIRE 1456 64 1456 -16
WIRE 1456 64 1408 64
WIRE 1952 64 1456 64
WIRE 1136 80 1008 80
WIRE 1136 96 1024 96
WIRE 288 208 288 -64
WIRE 288 208 48 208
WIRE -128 272 -384 272
WIRE -80 272 -128 272
WIRE 384 304 384 16
WIRE 384 304 192 304
WIRE -320 336 -384 336
WIRE -80 336 -320 336
WIRE 160 448 -176 448
WIRE 288 448 288 208
WIRE 288 448 160 448
WIRE 624 448 288 448
WIRE 848 448 624 448
WIRE -176 464 -176 448
WIRE 848 464 848 448
WIRE -128 496 -128 272
WIRE 80 496 -128 496
WIRE -320 512 -320 336
WIRE -256 512 -320 512
WIRE 768 512 224 512
WIRE 80 528 -96 528
WIRE 976 528 976 48
WIRE 976 528 912 528
WIRE -320 544 -320 512
WIRE -256 544 -320 544
WIRE 768 544 752 544
WIRE 624 560 624 448
WIRE 416 608 416 48
WIRE 544 608 416 608
WIRE 752 624 752 544
WIRE 752 624 688 624
WIRE 432 640 432 64
WIRE 544 640 432 640
WIRE 288 720 288 448
WIRE 288 720 48 720
WIRE -128 784 -384 784
WIRE -80 784 -128 784
WIRE 416 816 416 608
WIRE 416 816 192 816
WIRE -320 848 -384 848
WIRE -80 848 -320 848
WIRE 160 928 -176 928
WIRE 288 928 288 720
WIRE 288 928 160 928
WIRE 848 928 288 928
WIRE -176 944 -176 928
WIRE 848 944 848 928
WIRE -128 976 -128 784
WIRE 80 976 -128 976
WIRE -320 992 -320 848
WIRE -256 992 -320 992
WIRE 768 992 224 992
WIRE 80 1008 -96 1008
WIRE 1008 1008 1008 80
WIRE 1008 1008 912 1008
WIRE -320 1024 -320 992
WIRE -256 1024 -320 1024
WIRE 432 1024 432 640
WIRE 768 1024 432 1024
WIRE 288 1200 288 928
WIRE 288 1200 48 1200
WIRE -128 1264 -384 1264
WIRE -80 1264 -128 1264
WIRE 432 1296 432 1024
WIRE 432 1296 192 1296
WIRE -320 1328 -384 1328
WIRE -80 1328 -320 1328
WIRE 160 1408 -176 1408
WIRE 288 1408 288 1200
WIRE 288 1408 160 1408
WIRE -176 1424 -176 1408
WIRE -128 1456 -128 1264
WIRE 80 1456 -128 1456
WIRE -320 1472 -320 1328
WIRE -256 1472 -320 1472
WIRE 1024 1472 1024 96
WIRE 1024 1472 224 1472
WIRE 80 1488 -96 1488
WIRE -320 1504 -320 1472
WIRE -256 1504 -320 1504
FLAG -384 -240 A0
IOPIN -384 -240 In
FLAG -384 -176 B0
IOPIN -384 -176 In
FLAG -384 336 B1
IOPIN -384 336 In
FLAG -384 784 A2
IOPIN -384 784 In
FLAG -384 848 B2
IOPIN -384 848 In
FLAG -384 1264 A3
IOPIN -384 1264 In
FLAG -384 1328 B3
IOPIN -384 1328 In
FLAG -384 272 A1
IOPIN -384 272 In
FLAG 288 -544 VDD
IOPIN 288 -544 In
FLAG 1952 -176 EQUAL
IOPIN 1952 -176 Out
FLAG 1952 64 A>B
IOPIN 1952 64 Out
FLAG 1952 -48 A<B
IOPIN 1952 -48 Out
SYMBOL xnor 32 304 R0
SYMATTR InstName X1
SYMBOL xnor 32 816 R0
SYMATTR InstName X2
SYMBOL xnor 32 1296 R0
SYMATTR InstName X3
SYMBOL xnor 32 -208 R0
SYMATTR InstName X4
SYMBOL and4 816 -176 R0
SYMATTR InstName X5
SYMBOL and 128 0 R0
SYMATTR InstName X6
SYMBOL nand -192 0 R0
SYMATTR InstName X7
SYMBOL nand -192 512 R0
SYMATTR InstName X8
SYMBOL and 128 512 R0
SYMATTR InstName X9
SYMBOL and 128 992 R0
SYMATTR InstName X10
SYMBOL nand -192 992 R0
SYMATTR InstName X11
SYMBOL nand -192 1472 R0
SYMATTR InstName X12
SYMBOL and 128 1472 R0
SYMATTR InstName X13
SYMBOL and4 816 32 R0
SYMATTR InstName X14
SYMBOL and 816 528 R0
SYMATTR InstName X15
SYMBOL and 592 624 R0
SYMATTR InstName X16
SYMBOL and 816 1008 R0
SYMATTR InstName X17
SYMBOL or4 1248 64 R0
SYMATTR InstName X18
SYMBOL nor 1600 -48 R0
SYMATTR InstName X19
