Version 4
SHEET 1 880 708
WIRE -272 240 -496 240
WIRE 144 240 -48 240
WIRE 288 240 144 240
WIRE -496 480 -496 240
WIRE -496 640 -496 560
WIRE -96 688 -96 640
FLAG 144 320 0
FLAG 288 304 0
FLAG -496 640 0
FLAG -96 560 VDD
FLAG -96 688 0
FLAG -192 176 VDD
SYMBOL voltage -496 464 R0
WINDOW 123 0 0 Left 0
WINDOW 39 0 0 Left 0
SYMATTR InstName V1
SYMATTR Value PULSE(0 1 1n 10p 10p 2n 4n)
SYMBOL res 128 224 R0
SYMATTR InstName R1
SYMATTR Value 100k
SYMBOL cap 272 240 R0
SYMATTR InstName C1
SYMATTR Value 100f
SYMBOL voltage -96 544 R0
WINDOW 123 0 0 Left 0
WINDOW 39 0 0 Left 0
SYMATTR InstName VDD1
SYMATTR Value 1
SYMBOL inverter -192 240 R0
WINDOW 39 0 0 Left 0
SYMATTR InstName X1
TEXT -624 120 Left 2 !.include 90nm_bulk.txt
TEXT -592 -40 Left 2 !.tran 0 8n 0 1p
