Version 4
SHEET 1 880 680
WIRE 240 64 240 -16
WIRE 160 112 -288 112
WIRE 512 128 320 128
WIRE 608 128 512 128
WIRE 160 144 96 144
WIRE 512 160 512 128
WIRE 608 176 608 128
WIRE -288 224 -288 192
WIRE 512 272 512 240
WIRE 608 272 608 240
WIRE 96 304 96 144
WIRE -96 352 -96 320
WIRE 96 416 96 384
WIRE -96 464 -96 432
FLAG 240 -16 VDD
IOPIN 240 -16 In
FLAG -288 224 0
FLAG 96 416 0
FLAG -96 464 0
FLAG -96 320 VDD
IOPIN -96 320 Out
FLAG 608 272 0
FLAG 512 272 0
SYMBOL nand 224 112 R0
SYMATTR InstName X1
SYMBOL voltage -288 96 R0
WINDOW 123 0 0 Left 0
WINDOW 39 0 0 Left 0
SYMATTR InstName V1
SYMATTR Value PULSE(0 1 2n 10p 10p 2n 4n)
SYMBOL voltage -96 336 R0
WINDOW 123 0 0 Left 0
WINDOW 39 0 0 Left 0
SYMATTR InstName V2
SYMATTR Value 1
SYMBOL voltage 96 288 R0
WINDOW 123 0 0 Left 0
WINDOW 39 0 0 Left 0
SYMATTR InstName V3
SYMATTR Value PULSE(0 1 4n 10p 10p 4n 8n)
SYMBOL cap 592 176 R0
SYMATTR InstName C1
SYMATTR Value 100f
SYMBOL res 496 144 R0
SYMATTR InstName R1
SYMATTR Value 100k
TEXT -320 488 Left 2 !.tran 0 16n 0 1p
