Version 4
SHEET 1 1196 680
WIRE 320 -112 112 -112
WIRE 352 -112 352 -160
WIRE 352 -112 320 -112
WIRE 544 -112 352 -112
WIRE -16 -48 -80 -48
WIRE 368 -16 256 -16
WIRE 544 0 544 -112
WIRE -16 16 -80 16
WIRE 368 64 368 -16
WIRE 416 64 368 64
WIRE 752 96 688 96
WIRE 320 128 320 -112
WIRE 320 128 112 128
WIRE 416 128 368 128
WIRE -16 192 -80 192
WIRE 368 224 368 128
WIRE 368 224 256 224
WIRE -16 256 -80 256
FLAG 352 -160 VDD
IOPIN 352 -160 In
FLAG -80 -48 VA
IOPIN -80 -48 In
FLAG -80 16 VB
IOPIN -80 16 In
FLAG -80 192 VC
IOPIN -80 192 In
FLAG -80 256 VD
IOPIN -80 256 In
FLAG 752 96 VOUT
IOPIN 752 96 Out
SYMBOL or 96 -16 R0
SYMATTR InstName X1
SYMBOL or 96 224 R0
SYMATTR InstName X2
SYMBOL or 528 96 R0
SYMATTR InstName X3
