Version 4
SHEET 1 1360 724
WIRE 112 80 32 80
WIRE 112 112 32 112
WIRE 864 112 352 112
WIRE 944 112 864 112
WIRE 944 128 944 112
WIRE 112 144 32 144
WIRE 112 176 32 176
WIRE 688 176 352 176
WIRE 768 176 688 176
WIRE 112 208 32 208
WIRE 112 240 32 240
WIRE 528 240 352 240
WIRE 608 240 528 240
WIRE 112 272 32 272
WIRE 112 304 32 304
FLAG 32 80 0
IOPIN 32 80 In
FLAG 32 112 0
IOPIN 32 112 In
FLAG 32 144 0
IOPIN 32 144 In
FLAG 32 176 0
IOPIN 32 176 In
FLAG 32 208 1
IOPIN 32 208 In
FLAG 32 240 0
IOPIN 32 240 In
FLAG 32 272 0
IOPIN 32 272 In
FLAG 32 304 0
IOPIN 32 304 In
FLAG 944 192 0
FLAG 768 240 0
FLAG 608 304 0
FLAG 864 192 0
FLAG 688 256 0
FLAG 528 320 0
FLAG 352 -32 0
FLAG 352 -112 VDD
IOPIN 352 -112 Out
FLAG -336 144 0
FLAG -336 64 0
IOPIN -336 64 Out
FLAG -336 304 0
FLAG -336 224 1
IOPIN -336 224 Out
FLAG 240 16 VDD
IOPIN 240 16 In
SYMBOL comparator 160 144 R0
SYMATTR InstName X1
SYMBOL cap 928 128 R0
SYMATTR InstName C1
SYMATTR Value 100f
SYMBOL cap 752 176 R0
SYMATTR InstName C2
SYMATTR Value 100f
SYMBOL cap 592 240 R0
SYMATTR InstName C3
SYMATTR Value 100f
SYMBOL res 848 96 R0
SYMATTR InstName R1
SYMATTR Value 100k
SYMBOL res 672 160 R0
SYMATTR InstName R2
SYMATTR Value 100k
SYMBOL res 512 224 R0
SYMATTR InstName R3
SYMATTR Value 100k
SYMBOL voltage 352 -128 R0
WINDOW 123 0 0 Left 0
WINDOW 39 0 0 Left 0
SYMATTR InstName V1
SYMATTR Value 1
SYMBOL voltage -336 48 R0
WINDOW 123 0 0 Left 0
WINDOW 39 0 0 Left 0
SYMATTR InstName V2
SYMATTR Value 0
SYMBOL voltage -336 208 R0
WINDOW 123 0 0 Left 0
WINDOW 39 0 0 Left 0
SYMATTR InstName V3
SYMATTR Value PULSE(0 1 4n 10p 10p 4n 8n)
TEXT -568 -376 Left 2 !.include 90nm_bulk.txt
TEXT -552 -328 Left 2 !.tran 0 16n 0 1p
