Version 4
SHEET 1 1196 680
WIRE 224 0 144 0
WIRE 384 0 224 0
WIRE 528 0 528 -16
WIRE 528 0 384 0
WIRE 656 0 528 0
WIRE 928 0 656 0
WIRE 384 16 384 0
WIRE 16 64 -96 64
WIRE 304 64 16 64
WIRE 528 80 464 80
WIRE 928 80 928 0
WIRE 144 96 144 0
WIRE 304 96 272 96
WIRE 656 96 656 0
WIRE 848 128 800 128
WIRE 16 144 16 64
WIRE 64 144 16 144
WIRE 224 144 224 0
WIRE 384 144 224 144
WIRE 528 144 528 80
WIRE 576 144 528 144
WIRE 1072 144 1008 144
WIRE 272 160 272 96
WIRE 272 160 224 160
WIRE 800 160 800 128
WIRE 800 160 736 160
WIRE 848 160 800 160
WIRE 64 176 16 176
WIRE 384 176 384 144
WIRE 576 176 528 176
WIRE 272 224 272 160
WIRE 304 224 272 224
WIRE 528 240 528 176
WIRE 528 240 464 240
WIRE 16 256 16 176
WIRE 16 256 -96 256
WIRE 304 256 16 256
FLAG 528 -16 VDD
IOPIN 528 -16 In
FLAG -96 64 VA
IOPIN -96 64 In
FLAG -96 256 VB
IOPIN -96 256 In
FLAG 1072 144 VOUT
IOPIN 1072 144 Out
SYMBOL nand 128 144 R0
SYMATTR InstName X1
SYMBOL nand 368 64 R0
SYMATTR InstName X2
SYMBOL nand 368 224 R0
SYMATTR InstName X3
SYMBOL nand 640 144 R0
SYMATTR InstName X4
SYMBOL nand 912 128 R0
SYMATTR InstName X5
